21
	Energy:      19.1175226
C          1.04664       -0.00616       -0.03675
C          2.52707       -0.24136       -0.05481
O          3.07426       -1.22968        0.41812
O          3.14672        0.80417       -0.73166
C          4.54318        0.72069       -0.70351
C          5.17172        0.36926       -1.90223
C          6.56193        0.27874       -1.95146
C          7.31911        0.54763       -0.81133
C          6.68908        0.92207        0.37976
C          5.29107        1.02374        0.44402
C          4.62078        1.46760        1.69273
O          5.44207        1.43312        2.75908
O          3.46351        1.82669        1.81427
H          0.59404       -0.62393        0.74417
H          0.62034       -0.27232       -1.00635
H          0.83422        1.03999        0.20001
H          4.58193        0.15836       -2.78995
H          7.05630       -0.00458       -2.87768
H          8.40346        0.47097       -0.84882
H          7.30097        1.13894        1.25243
H          4.86696        1.70496        3.50464
