24
	Energy:    -121.8788732
C          1.01903       -0.09357       -0.08734
N          2.45809       -0.02268       -0.08811
C          3.32077       -1.08629       -0.08776
N          4.57845       -0.69129       -0.08883
C          4.50921        0.66926       -0.09007
N          5.56855        1.54314       -0.09188
C          6.94110        1.07939       -0.09240
C          5.32541        2.91930       -0.09285
O          6.25629        3.73033       -0.09384
N          3.98088        3.33465       -0.09280
C          3.69728        4.75641       -0.09540
C          2.86816        2.48614       -0.09104
O          1.70499        2.88019       -0.09088
C          3.22010        1.10999       -0.08964
H          0.70550       -1.14068       -0.08660
H          0.64565        0.40193       -0.98697
H          0.64656        0.40297        0.81209
H          2.98602       -2.11614       -0.08681
H          7.00404       -0.01206       -0.09569
H          7.44738        1.46673        0.79763
H          7.44864        1.47180       -0.97950
H          4.60066        5.37063       -0.09470
H          3.10147        5.00062        0.79033
H          3.10498        4.99761       -0.98433
