40
	Energy:     295.6283050
O         -2.19252        1.69225        4.96329
O         -3.36936        0.67213        2.24590
O         -4.74650        1.80088        6.42662
N         -1.34368        5.63678        1.15314
C         -1.63229        3.24125        3.20262
C         -1.15719        3.35198        1.80063
C         -3.10922        3.12489        3.44627
C         -1.44772        1.79432        3.71510
C         -2.15682        4.39701        1.21917
C         -3.31437        2.41726        4.62525
C         -4.13093        3.44073        2.56911
C         -1.26653        4.70273        3.78586
C         -0.63914        2.14785        1.04335
C         -1.95970        0.70902        2.51262
C         -3.68279        3.90164        1.15977
C         -4.55911        2.28200        5.17109
C         -0.83146        5.84683        2.60853
C         -1.31549        0.99885        1.17227
C         -5.42015        3.16303        3.04332
C         -5.63048        2.64262        4.36235
C         -0.22642        5.49180        0.19437
H         -0.15498        3.79021        1.94716
H         -3.54905        0.72395        1.29059
H         -3.88051        1.86212        6.87480
H         -0.39090        1.56480        3.92151
H         -2.61661        4.97928        2.02179
H         -0.47610        4.66607        4.54305
H         -2.14760        5.15613        4.26733
H          0.38904        1.99498        1.42580
H         -1.71344       -0.30855        2.82324
H         -3.79466        3.07329        0.45266
H         -4.33011        4.72598        0.83521
H         -1.25411        6.81025        2.92253
H          0.25795        5.96172        2.62772
H         -1.84307        0.72563        0.26514
H         -6.29025        3.31139        2.41179
H         -6.63746        2.45762        4.72974
H         -0.45635        4.76659       -0.59932
H         -0.02125        6.44541       -0.29777
H          0.71462        5.16000        0.65460
