20
	Energy:     -11.0189120
C          0.86868       -0.07894        0.04492
C          2.34932        0.16678        0.12015
O          2.75182        1.31242        0.31566
N          3.12734       -0.96719       -0.04377
C          4.54090       -0.99825       -0.13325
C          5.31064        0.16734       -0.17417
C          6.69247        0.11974       -0.35337
C          7.32574       -1.10776       -0.44793
C          6.59688       -2.28695       -0.35093
C          5.19973       -2.23383       -0.21569
O          8.67077       -1.18390       -0.65129
H          0.35353        0.87488        0.20552
H          0.55529       -0.77469        0.82617
H          0.59389       -0.45100       -0.94430
H          2.64853       -1.85879       -0.11136
H          4.86718        1.15258       -0.08898
H          7.24007        1.05391       -0.41574
H          7.11265       -3.24259       -0.38879
H          4.65191       -3.17164       -0.16772
H          8.99986       -0.28577       -0.82764
