23
	Energy:      30.3679017
N          0.88659       -0.00626        0.15348
C          2.35193        0.00495        0.06110
C          2.89231        1.27725       -0.63346
C          2.47153        1.51630       -2.07010
C          2.25070        0.47214       -2.97884
C          1.90140        0.74146       -4.30477
C          1.78854        2.05728       -4.74621
C          2.02781        3.10590       -3.86280
C          2.37061        2.83745       -2.53598
C          2.92612       -0.10971        1.47409
H          0.49313        0.11186       -0.78186
H          0.57059        0.80807        0.67960
H          2.66580       -0.88525       -0.49472
H          3.98993        1.25187       -0.62031
H          2.59369        2.14779       -0.03260
H          2.34751       -0.56689       -2.67485
H          1.72454       -0.07933       -4.99521
H          1.52290        2.26436       -5.77932
H          1.95353        4.13415       -4.20700
H          2.56446        3.67225       -1.86551
H          2.63050        0.73933        2.10073
H          4.02074       -0.14085        1.44467
H          2.58270       -1.02788        1.96380
