! HF 6-31G* ecp{LANL=Mn, LANLDZ=Mn} 

%pal
nprocs 64 
end

%elprop dipole true
  polar 1
end

%scf
 maxiter 2000
end

*xyz 0 1  #  q = 0 for this fragment. Mult = 1
Mn 2.848892 4.293575 5.445256
O 4.051601 2.473156 5.770687
O 3.680185 5.399503 7.077416
O 4.361154 5.179032 4.112112
O 6.105522 7.243908 7.369143
O 6.276584 5.087168 5.211538
C 4.949093 2.176132 6.622147
H 5.122499 1.260564 6.750896
C 5.616939 5.250481 4.203501
H 6.089119 5.448497 3.413948
Mn 8.867711 5.913425 9.216016
O 7.665002 7.733844 8.890585
O 8.036418 4.807496 7.583856
O 7.355449 5.027968 10.549160
O 5.611081 2.963092 7.292129
O 5.440018 5.119831 9.449734
C 6.767510 8.030868 8.039125
H 6.594104 8.946435 7.910376
C 6.099663 4.956519 10.457771
H 5.627484 4.758503 11.247324
Mn 0.000000 0.000000 0.000000
Mn 5.858301 5.103500 7.330636
*
