! dft b3lyp 6-31G* copt allpop chelpg

%pal
nprocs 12
end

%MaxCore 10000


*xyz 0 1
  O      -6.286353     -0.826019     -0.906207
  C      -5.210383     -0.026537     -1.384332
  H      -6.532267     -0.480107     -0.027999
  C      -3.841447     -0.712002     -1.226017
  H      -5.172803      0.938692     -0.859417
  H      -5.397926      0.197438     -2.441644
  O      -2.787330      0.249137     -1.274645
  H      -3.670636     -1.423533     -2.042605
  H      -3.808332     -1.272049     -0.281734
  C      -2.505057      0.764374      0.012939
  C      -1.479781      1.880083     -0.025390
  H      -2.125440     -0.036797      0.664761
  H      -3.419273      1.164785      0.481206
  O      -0.210078      1.345580     -0.333037
  H      -1.470809      2.345657      0.976014
  H      -1.773472      2.669295     -0.737943
  C       0.857502      2.175587      0.081829
  C       2.173051      1.505535     -0.254913
  H       0.814013      2.341874      1.171808
  H       0.819286      3.160974     -0.405356
  O       2.316885      0.331655      0.514839
  H       2.991042      2.216258     -0.038627
  H       2.209159      1.265303     -1.331822
  C       3.559166     -0.299554      0.305144
  C       3.515411     -1.695796      0.893242
  H       4.374567      0.278127      0.776787
  H       3.780107     -0.377876     -0.772248
  O       2.629708     -2.464226      0.112058
  H       3.167534     -1.649314      1.937427
  H       4.533976     -2.123353      0.888521
  C       2.477021     -3.809216      0.525418
  C       1.108538     -4.279966      0.071668
  H       2.535158     -3.894067      1.620964
  H       3.260215     -4.446861      0.091266
  O       0.162984     -3.894449      1.057038
  H       1.112954     -5.369857     -0.063035
  H       0.882296     -3.808618     -0.896052
  C      -1.161957     -3.742749      0.594792
  C      -1.938748     -3.160611      1.778732
  H      -1.587093     -4.710497      0.274528
  H      -1.206663     -3.055057     -0.264859
  O      -3.296408     -2.874062      1.490182
  H      -1.476506     -2.209710      2.062841
  H      -1.861452     -3.848735      2.634835
  C      -4.148228     -4.009134      1.390173
  C      -5.595187     -3.549413      1.475810
  H      -3.931690     -4.721352      2.198848
  H      -4.000586     -4.537011      0.433637
  O      -5.941233     -3.108696      2.791456
  H      -6.244689     -4.402004      1.253504
  H      -5.784774     -2.772315      0.721357
  C      -5.834827     -1.704454      2.993861
  C      -7.142299     -0.978459      2.582768
  H      -4.984038     -1.295031      2.434570
  H      -5.629218     -1.573680      4.062939
  O      -6.952514      0.162543      1.744838
  H      -7.730868     -0.681422      3.464487
  H      -7.751787     -1.671586      1.993579
  C      -6.405060      1.314742      2.377641
  C      -6.752711      2.517977      1.495600
  H      -5.317940      1.217376      2.505390
  H      -6.849847      1.445618      3.373949
  O      -6.035269      3.689552      1.842992
  H      -7.814635      2.750322      1.605578
  H      -6.578116      2.257327      0.442516
  C      -4.754470      3.796298      1.235688
  C      -4.365673      5.269042      1.210152
  H      -4.788074      3.432826      0.197733
  H      -3.997350      3.206751      1.774681
  O      -3.197655      5.394286      0.420489
  H      -4.201775      5.651567      2.230696
  H      -5.197022      5.842077      0.767553
  C      -2.827682      6.744612      0.221051
  C      -1.755463      6.870678     -0.847184
  H      -2.469862      7.197114      1.158963
  H      -3.706937      7.322270     -0.112546
  O      -0.477162      6.535320     -0.340416
  H      -1.755312      7.918378     -1.193872
  H      -2.020115      6.232995     -1.706056
  C       0.563682      6.954140     -1.201435
  C       1.912922      6.598060     -0.595749
  H       0.520278      8.049970     -1.341697
  H       0.468204      6.491080     -2.197668
  O       2.208749      5.210356     -0.682476
  H       1.912022      6.871489      0.465310
  H       2.688476      7.194334     -1.095889
  C       3.137851      4.849252     -1.694812
  C       4.582849      5.066335     -1.226677
  H       2.933957      5.388895     -2.631778
  H       2.992213      3.782786     -1.888362
  O       5.435053      4.199438     -1.952835
  H       4.627138      4.850473     -0.147576
  H       4.895550      6.116168     -1.364079
  C       6.808601      4.451193     -1.701137
  C       7.674650      3.319661     -2.237735
  H       6.991161      4.546545     -0.620238
  H       7.110307      5.398406     -2.181351
  O       7.643008      2.154143     -1.435697
  H       8.716817      3.666544     -2.240222
  H       7.389718      3.094548     -3.275574
  C       6.733369      1.145808     -1.846471
  C       6.901287     -0.066601     -0.936309
  H       6.915613      0.874905     -2.901655
  H       5.690570      1.495561     -1.774748
  O       8.170728     -0.706587     -1.043216
  H       6.092068     -0.778819     -1.131663
  H       6.821081      0.274906      0.102328
  C       8.265538     -1.721337     -2.025440
  C       7.837119     -3.104459     -1.541061
  H       9.323266     -1.779277     -2.304285
  H       7.688499     -1.466420     -2.926613
  O       6.420918     -3.150386     -1.436656
  H       8.320572     -3.311567     -0.573672
  H       8.189312     -3.859529     -2.264264
  C       5.811290     -4.423081     -1.550949
  C       5.950958     -5.281469     -0.292418
  H       6.207429     -4.973605     -2.419551
  H       4.748587     -4.230036     -1.727872
  O       5.007151     -6.331460     -0.403545
  H       5.754166     -4.664897      0.598323
  H       6.974405     -5.681771     -0.202641
  C       5.081752     -7.267579      0.653242
  C       3.947314     -8.275686      0.559111
  H       5.025855     -6.761488      1.629280
  H       6.039056     -7.814754      0.610779
  O       2.727369     -7.664873      0.933652
  H       4.179621     -9.112532      1.238972
  H       3.886725     -8.680840     -0.463212
  C       1.638018     -8.561364      1.095622
  C       0.431817     -7.694859      1.436170
  H       1.833262     -9.277265      1.909986
  H       1.456997     -9.137698      0.174348
  O      -0.674234     -8.496625      1.810815
  H       0.169870     -7.080649      0.562933
  H       0.711136     -7.005063      2.247775
  C      -1.811703     -7.677337      2.003667
  C      -3.022411     -8.490326      2.438453
  H      -2.068239     -7.151502      1.069530
  H      -1.608040     -6.910828      2.767456
  O      -4.080840     -7.553310      2.468668
  H      -2.855340     -8.943530      3.428307
  H      -3.225863     -9.302463      1.722490
  C      -5.310849     -8.016551      3.004435
  C      -6.313255     -6.883902      2.806770
  H      -5.192834     -8.271903      4.071066
  H      -5.638854     -8.929673      2.479417
  C      -7.712403     -7.094398      3.396188
  H      -6.399376     -6.714279      1.725069
  H      -5.880961     -5.970211      3.232857
  C      -8.663468     -5.955439      2.984271
  H      -7.653699     -7.150426      4.493299
  H      -8.129508     -8.056762      3.060757
  C     -10.058004     -6.068905      3.613889
  H      -8.196356     -4.992875      3.236401
  H      -8.765913     -5.965668      1.887880
  C     -11.131284     -5.160500      2.992621
  H      -9.994425     -5.875540      4.694906
  H     -10.396430     -7.110918      3.511441
  C     -11.004596     -3.652251      3.275174
  H     -12.112655     -5.489023      3.362815
  H     -11.151851     -5.323941      1.903837
  C     -12.187608     -2.877000      2.668213
  H     -10.052172     -3.269471      2.883141
  H     -10.976398     -3.492203      4.364126
  C     -12.368438     -1.412853      3.103316
  H     -13.111441     -3.412244      2.931898
  H     -12.118974     -2.922529      1.571402
  C     -11.292908     -0.417409      2.636902
  H     -12.460131     -1.367383      4.198969
  H     -13.335300     -1.069661      2.707189
  C     -11.706643      1.045319      2.874995
  H     -11.102946     -0.565366      1.563326
  H     -10.337826     -0.615897      3.144910
  C     -10.682739      2.082732      2.392870
  H     -11.910515      1.194027      3.945783
  H     -12.661116      1.228883      2.359149
  C     -11.204923      3.525260      2.437549
  H      -9.765606      2.005277      2.995232
  H     -10.390511      1.838932      1.361162
  C     -10.227773      4.549777      1.847219
  H     -11.441852      3.804536      3.474380
  H     -12.154734      3.578202      1.886183
  C     -10.783619      5.981200      1.824304
  H      -9.286111      4.525105      2.411852
  H      -9.971539      4.254523      0.818308
  C      -9.873801      7.003788      1.124356
  H     -10.980842      6.315904      2.854147
  H     -11.758814      5.971409      1.316989
  C      -8.529649      7.251474      1.823847
  H     -10.410708      7.960880      1.047519
  H      -9.689624      6.676540      0.089764
  C      -7.706931      8.349030      1.138385
  H      -8.717081      7.534219      2.870010
  H      -7.941349      6.324441      1.858508
  H      -8.252465      9.302274      1.118010
  H      -7.483164      8.079010      0.097949
  H      -6.753898      8.520823      1.653493
*
